LAMMPS (22 Jul 2025 - Update 2)
echo both
boundary p p p
units metal
atom_modify map yes
neigh_modify delay 0 every 1 check yes

read_data crystal.dat
Reading data file ...
  triclinic box = (0 0 0) to (10.9686 10.9686 10.9686) with tilt (0 0 0)
  reading atoms ...
  64 atoms

pair_style mtd 1e-4 1                Si 0.001 1.0 20                1                1.0
pair_coeff * * potential_saved Si

fix my_mdi all mdi/qm virial yes

compute myTemp all temp
compute ppa all pe/atom
compute p_static all pressure NULL virial
compute p_kinetic all pressure myTemp ke

thermo 1
thermo_style custom step temp pe evdwl ecoul vol c_p_static c_p_kinetic press spcpu

timestep 0.002
velocity all create 300 2025
fix int all npt temp 300 300 0.1 tri 0 0 1.0

dump traj all custom 1 traj.dump id type x y z ix iy iz c_ppa fx fy fz
dump_modify traj sort id

run 1000
Generated 0 of 0 mixed pair_coeff terms from geometric mixing rule
Step          Temp          PotEng         E_vdwl         E_coul         Volume       c_p_static    c_p_kinetic       Press          S/CPU
0   300           -346.64191      0              0              1319.6342      5187.7552      1977.3884      7165.1436      0
Averages over the last 501 of 1001 rows, steps 500 to 1000:
Temp PotEng E_vdwl E_coul Volume c_p_static c_p_kinetic Press
405.615 -267.452 0 5.62508 7667.5 -4383.67 546.954 -3836.72
Loop time of 163.817 on 4 procs for 1000 steps with 64 atoms
